powerfactory/powerfactory-converter/src/test/resources/Transformer-Phase-GB-Neutral.dgs
$$General;ID(a:40);Descr(a:40);Val(a:40)
  1;Version;5.0


$$ChaRef;ID(a:40);loc_name(a:40);fold_id(p)
  2;fline;6
  3;fline;7


$$ChaVec;ID(a:40);loc_name(a:40);fold_id(p);scale(p);usage(i);approx(i);vector:SIZEROW(i);vector:0(r);vector:1(r);vector:2(r)
  4;vec_1;;;0;0;3;100;199,98;199,98
  5;vec_2;;;0;0;3;100;199,98;199,98


$$ElmLne;ID(a:40);loc_name(a:40);for_name(a:50);fold_id(p);typ_id(p);dline(r);fline(r);GPScoords:SIZEROW(i);GPScoords:SIZECOL(i);nlnum(i);inAir(i)
  6;lne_1_2_1;;9;32;52;1;0;0;1;0
  7;lne_1_3_1;;9;33;52;1;0;0;1;0


$$ElmLod;ID(a:40);loc_name(a:40);for_name(a:50);fold_id(p);typ_id(p);mode_inp(a:3);slini(r);plini(r);qlini(r);coslini(r);pf_recap(i);scale0(r);i_scale(i);outserv(i);classif(a:20)
  8;lod_3_1;;9;34;PQ;55,9017;50;25;0,894427;0;1;0;0;


$$ElmNet;ID(a:40);loc_name(a:40);for_name(a:50);fold_id(p);frnom(r);pDiagram(p)
  9;1 aux_1;;;60;


$$ElmSym;ID(a:40);loc_name(a:40);for_name(a:50);fold_id(p);typ_id(p);cCategory(a);ngnum(i);i_mot(i);pgini(r);qgini(r);cosgini(r);usetp(r);pf_recap(i);q_min(r);q_max(r);outserv(i);av_mode(a);phtech(i)
  10;sym_1_1;;9;35;Others;1;0;59,95;0;1;1,06;0;0;0;0;constv;1


$$ElmTerm;ID(a:40);loc_name(a:40);for_name(a:50);fold_id(p);typ_id(p);systype(i);iUsage(i);uknom(r);unknom(r);iminus(i);outserv(i);GPSlat(r);GPSlon(r);vtarget(r);m:u(r);m:phiu(r)
  11;1 Bus 1-Slack;;9;;0;0;165;95,26279;0;0;0;0;1;1,05999994277954;0
  12;2 Bus 2;;9;;0;0;165;95,26279;0;0;0;0;1;1,03533915404292;-0,38687681209609
  13;3 Bus 2-Load;;9;;0;0;165;95,26279;0;0;0;0;1;1,03191176235461;-0,70610536998356


$$ElmTr2;ID(a:40);loc_name(a:40);fold_id(p);for_name(a:50);typ_id(p);ntnum(i);outserv(i);nntap(i);i_auto(i);ntrcn(i);usetp(r);usp_low(r);usp_up(r);t2ldc(i)
  14;trf_2_3_1;9;;36;1;0;0;0;1;1;0,99;1,01;0


$$ElmZone;ID(a:40);loc_name(a:40);for_name(a:50);fold_id(p);icolor(i);curscale(r)
  15;1_aux_1;;;1;1


$$StaCubic;ID(a:40);loc_name(a:40);for_name(a:50);fold_id(p);obj_bus(i);obj_id(p);it2p1(i);it2p2(i);it2p3(i)
  16;lne_1_2_1;;11;0;6;0;1;2
  17;lne_1_3_1;;11;0;7;0;1;2
  18;sym_1_1;;11;0;10;0;1;2
  19;lne_1_2_1;;12;1;6;0;1;2
  20;trf_2_3_1;;12;0;14;0;1;2
  21;lne_1_3_1;;13;1;7;0;1;2
  22;lod_3_1;;13;0;8;0;1;2
  23;trf_2_3_1;;13;1;14;0;1;2


$$StaSwitch;ID(a:40);loc_name(a:40);for_name(a:50);fold_id(p);on_off(i);typ_id(p);aUsage(a)
  24;Switch;;16;1;;cbk
  25;Switch;;17;1;;cbk
  26;Switch;;18;1;;cbk
  27;Switch;;19;1;;cbk
  28;Switch;;20;1;;cbk
  29;Switch;;21;1;;cbk
  30;Switch;;22;1;;cbk
  31;Switch;;23;1;;cbk


$$TypLne;ID(a:40);loc_name(a:40);for_name(a:50);fold_id(p);uline(r);sline(r);InomAir(r);cohl_(i);rline(r);xline(r);rline0(r);xline0(r);Ithr(r);tmax(r);rtemp(r);systp(i);nlnph(i);nneutral(i);frnom(r);mlei(a:2);bline(r);bline0(r)
  32;tlne_1_2_1;;9;165;17,49546;1;0;0,101465;0,309789;999999;999999;0;80;80;0;3;0;60;Cu;24,44586;0
  33;tlne_1_3_1;;9;165;17,49546;1;0;0,101465;0,309789;999999;999999;0;80;80;0;3;0;60;Cu;24,44586;0


$$TypLod;ID(a:40);loc_name(a:40);for_name(a:50);fold_id(p);systp(i);phtech(i);aP(r);bP(r);kpu0(r);kpu1(r);kpu(r);aQ(r);bQ(r);kqu0(r);kqu1(r);kqu(r)
  34;lodtyp_pq;;9;0;0;1;0;0;1;2;1;0;0;1;2


$$TypSym;ID(a:40);loc_name(a:40);for_name(a:50);fold_id(p);sgn(r);ugn(r);cosn(r);xd(r);xq(r);xdsss(r);rstr(r);xdsat(r);satur(i);nphase(i);nslty(i);x0sy(r);r0sy(r);x2sy(r);r2sy(r);iopt_data(i);xds(r);xqs(r);xl(r);xdss(r);xqss(r);xrlq(r);tds(r);tqs(r);tdss(r);tqss(r)
  35;tsym_1_1;;9;615;165;1;2;2;1;0;1,2;0;3;2;1;0;1;0;1;0,3;0,3;0,1;1;1;0;1;0;0,05;0,05


$$TypTr2;ID(a:40);loc_name(a:40);for_name(a:50);fold_id(p);nt2ph(i);strn(r);frnom(r);utrn_h(r);utrn_l(r);uktr(r);pcutr(r);uk0tr(r);ur0tr(r);tr2cn_h(a:2);tr2cn_l(a:2);nt2ag(r);curmg(r);pfe(r);zx0hl_n(r);itapch(i);tap_side(i);dutap(r);phitr(r);nntap0(i);ntpmn(i);ntpmx(i);manuf(a:20)
  36;ttrf_2_3_1;;9;3;400;60;165;165;12,20471;512;0;0;D;D;0;19,991;8600;100;1;0;0;-5,002;0;-1;1;
